/*---------------------------------------------------------------------------*\
  =========                 |
  \\      /  F ield         | OpenFOAM: The Open Source CFD Toolbox
   \\    /   O peration     | Website:  https://openfoam.org
    \\  /    A nd           | Version:  7
     \\/     M anipulation  |
\*---------------------------------------------------------------------------*/
Build  : 7
Exec   : checkMesh
Date   : Mar 03 2026
Time   : 23:20:00
Host   : "c208-013.frontera.tacc.utexas.edu"
PID    : 52231
I/O    : uncollated
Case   : /work2/10960/gunnikasingh03/frontera/COE-347-SP26/circular-cylinderA
nProcs : 1
sigFpe : Enabling floating point exception trapping (FOAM_SIGFPE).
fileModificationChecking : Monitoring run-time modified files using timeStampMaster (fileModificationSkew 10)
allowSystemOperations : Allowing user-supplied system call operations

// * * * * * * * * * * * * * * * * * * * * * * * * * * * * * * * * * * * * * //
Create time

Create polyMesh for time = 0

Time = 0

Mesh stats
    points:           47430
    internal points:  0
    faces:            93465
    internal faces:   46035
    cells:            23250
    faces per cell:   6
    boundary patches: 6
    point zones:      0
    face zones:       0
    cell zones:       0

Overall number of cells of each type:
    hexahedra:     23250
    prisms:        0
    wedges:        0
    pyramids:      0
    tet wedges:    0
    tetrahedra:    0
    polyhedra:     0

Checking topology...
    Boundary definition OK.
    Cell to face addressing OK.
    Point usage OK.
    Upper triangular ordering OK.
    Face vertices OK.
    Number of regions: 1 (OK).

Checking patch topology for multiply connected surfaces...
    Patch               Faces    Points   Surface topology                  
    inlet               150      302      ok (non-closed singly connected)  
    outlet              150      302      ok (non-closed singly connected)  
    cylinder            320      640      ok (non-closed singly connected)  
    top                 155      312      ok (non-closed singly connected)  
    bottom              155      312      ok (non-closed singly connected)  
    defaultFaces        46500    47430    ok (non-closed singly connected)  

Checking geometry...
    Overall domain bounding box (-4 -4 -0.05) (10 4 0.05)
    Mesh has 2 geometric (non-empty/wedge) directions (1 1 0)
    Mesh has 2 solution (non-empty) directions (1 1 0)
    All edges aligned with or perpendicular to non-empty directions.
    Boundary openness (-1.7699e-18 -3.0243e-18 -5.68809e-16) OK.
    Max cell openness = 2.30762e-16 OK.
    Max aspect ratio = 22.7016 OK.
    Minimum face area = 0.000113777. Maximum face area = 0.0809861.  Face area magnitudes OK.
    Min volume = 1.13777e-05. Max volume = 0.00809861.  Total volume = 11.1215.  Cell volumes OK.
    Mesh non-orthogonality Max: 44.1707 average: 12.6997
    Non-orthogonality check OK.
    Face pyramids OK.
    Max skewness = 1.08506 OK.
    Coupled point location match (average 0) OK.

Mesh OK.

End

