/*---------------------------------------------------------------------------*\
  =========                 |
  \\      /  F ield         | OpenFOAM: The Open Source CFD Toolbox
   \\    /   O peration     | Website:  https://openfoam.org
    \\  /    A nd           | Version:  7
     \\/     M anipulation  |
\*---------------------------------------------------------------------------*/
Build  : 7
Exec   : blockMesh
Date   : Mar 04 2026
Time   : 11:50:56
Host   : "c189-202.frontera.tacc.utexas.edu"
PID    : 106254
I/O    : uncollated
Case   : /work2/10960/gunnikasingh03/frontera/COE-347-SP26/circular-cylinderA_2
nProcs : 1
sigFpe : Enabling floating point exception trapping (FOAM_SIGFPE).
fileModificationChecking : Monitoring run-time modified files using timeStampMaster (fileModificationSkew 10)
allowSystemOperations : Allowing user-supplied system call operations

// * * * * * * * * * * * * * * * * * * * * * * * * * * * * * * * * * * * * * //
Create time

Creating block mesh from
    "/work2/10960/gunnikasingh03/frontera/COE-347-SP26/circular-cylinderA_2/system/blockMeshDict"
Creating block edges
No non-planar block faces defined
Creating topology blocks
Creating topology patches

Creating block mesh topology
--> FOAM Warning : 
    From function Foam::polyMesh::polyMesh(const Foam::IOobject &, Foam::Field<Foam::Vector<double>> &&, const Foam::List<Foam::cellShape> &, const Foam::List<Foam::List<Foam::face>> &, const Foam::List<Foam::word> &, const Foam::PtrList<Foam::dictionary> &, const Foam::word &, const Foam::word &, bool)
    in file meshes/polyMesh/polyMeshFromShapeMesh.C at line 873
    Found 40 undefined faces in mesh; adding to default patch.

Check topology

	Basic statistics
		Number of internal faces : 28
		Number of boundary faces : 64
		Number of defined boundary faces : 64
		Number of undefined boundary faces : 0
	Checking patch -> block consistency

Creating block offsets
Creating merge list .

Creating polyMesh from blockMesh
Creating points with scale 1
    Block 0 cell size :
        i : 0.00368144 .. 0.0294515
        j : 0.00490872 .. 0.00490872 0.00494486 .. 0.00494486 0.00490872 .. 0.00490872 0.00494486 .. 0.00494486 
        k : 0.1
    Block 1 cell size :
        i : 0.00368144 .. 0.0294515
        j : 0.00490872 .. 0.00490872 0.00494486 .. 0.00494486 0.00490872 .. 0.00490872 0.00494486 .. 0.00494486 
        k : 0.1
    Block 2 cell size :
        i : 0.00368144 .. 0.0294515
        j : 0.00490872 .. 0.00490872 0.00494486 .. 0.00494486 0.00490872 .. 0.00490872 0.00494486 .. 0.00494486 
        k : 0.1
    Block 3 cell size :
        i : 0.00368144 .. 0.0294515
        j : 0.00490872 .. 0.00490872 0.00494486 .. 0.00494486 0.00490872 .. 0.00490872 0.00494486 .. 0.00494486 
        k : 0.1
    Block 4 cell size :
        i : 0.00368144 .. 0.0294515
        j : 0.00490872 .. 0.00490872 0.00494486 .. 0.00494486 0.00490872 .. 0.00490872 0.00494486 .. 0.00494486 
        k : 0.1
    Block 5 cell size :
        i : 0.00368144 .. 0.0294515
        j : 0.00490872 .. 0.00490872 0.00494486 .. 0.00494486 0.00490872 .. 0.00490872 0.00494486 .. 0.00494486 
        k : 0.1
    Block 6 cell size :
        i : 0.00368144 .. 0.0294515
        j : 0.00490872 .. 0.00490872 0.00494486 .. 0.00494486 0.00490872 .. 0.00490872 0.00494486 .. 0.00494486 
        k : 0.1
    Block 7 cell size :
        i : 0.00368144 .. 0.0294515
        j : 0.00490872 .. 0.00490872 0.00494486 .. 0.00494486 0.00490872 .. 0.00490872 0.00494486 .. 0.00494486 
        k : 0.1
    Block 8 cell size :
        i : 0.0415237 .. 0.166095
        j : 0.00981744 .. 0.00981744 0.00981292 .. 0.00980116 0.00981744 .. 0.00981744 0.00981292 .. 0.00980116 
        k : 0.1
    Block 9 cell size :
        i : 0.042875 .. 0.1715
        j : 0.0724099 .. 0.28964
        k : 0.1
    Block 10 cell size :
        i : 0.00981744 .. 0.00981744 0.00980618 .. 0.009777 0.00981744 .. 0.00981744 0.00980618 .. 0.009777 
        j : 0.0690397 .. 0.276159
        k : 0.1
    Block 11 cell size :
        i : 0.00981744 .. 0.00981744 0.009777 .. 0.00980618 0.00981744 .. 0.00981744 0.009777 .. 0.00980618 
        j : 0.0724099 .. 0.28964 0.0723304 .. 0.289322 0.0724099 .. 0.28964 0.0723304 .. 0.289322 
        k : 0.1
    Block 12 cell size :
        i : 0.401311 .. 0.100328
        j : 0.0724099 .. 0.28964
        k : 0.1
    Block 13 cell size :
        i : 0.365616 .. 0.0914039 0.365622 .. 0.0914054 0.365616 .. 0.0914039 0.365622 .. 0.0914054 
        j : 0.00883883 .. 0.00883883 0.00895809 .. 0.00865285 0.00883883 .. 0.00883883 0.00895809 .. 0.00865285 
        k : 0.1
    Block 14 cell size :
        i : 0.401311 .. 0.100328 0.400469 .. 0.100117 0.401311 .. 0.100328 0.400469 .. 0.100117 
        j : 0.00883883 .. 0.00883883 0.00865285 .. 0.00895809 0.00883883 .. 0.00883883 0.00865285 .. 0.00895809 
        k : 0.1
    Block 15 cell size :
        i : 0.401311 .. 0.100328
        j : 0.28964 .. 0.0724099
        k : 0.1
    Block 16 cell size :
        i : 0.00883883 .. 0.00883883 0.00875887 .. 0.00888387 0.00883883 .. 0.00883883 0.00875887 .. 0.00888387 
        j : 0.28964 .. 0.0724099 0.289322 .. 0.0723304 0.28964 .. 0.0724099 0.289322 .. 0.0723304 
        k : 0.1
    Block 17 cell size :
        i : 0.00883883 .. 0.00883883 0.00888387 .. 0.00875887 0.00883883 .. 0.00883883 0.00888387 .. 0.00875887 
        j : 0.276159 .. 0.0690397
        k : 0.1
    Block 18 cell size :
        i : 0.042875 .. 0.1715
        j : 0.28964 .. 0.0724099
        k : 0.1
    Block 19 cell size :
        i : 0.042875 .. 0.1715 0.0428432 .. 0.171373 0.042875 .. 0.1715 0.0428432 .. 0.171373 
        j : 0.00981744 .. 0.00981744 0.00980116 .. 0.00981292 0.00981744 .. 0.00981744 0.00980116 .. 0.00981292 
        k : 0.1
Creating cells
Creating patches

There are no merge patch pairs edges

Writing polyMesh
----------------
Mesh Information
----------------
  boundingBox: (-4 -7 -0.05) (10 7 0.05)
  nPoints: 133670
  nCells: 66000
  nFaces: 264835
  nInternalFaces: 131165
----------------
Patches
----------------
  patch 0 (start: 131165 size: 240) name: inlet
  patch 1 (start: 131405 size: 240) name: outlet
  patch 2 (start: 131645 size: 640) name: cylinder
  patch 3 (start: 132285 size: 275) name: top
  patch 4 (start: 132560 size: 275) name: bottom
  patch 5 (start: 132835 size: 132000) name: defaultFaces

End

